********************************************************************************
**	@author		ViKo
**	@date		2016.10
**	@brief		Diodes spice models
**	@note		place link to folder in control settings LTspice
**				or in file.asc

.MODEL  BZX84-A10   D(IS=110.88E-18  N=.92657  RS=.85899  IKF=149.75  CJO=57.292E-12  M=.33236  VJ=.67995  ISR=49.142E-12  BV=10.124  IBV=.72438  TT=973.82E-9  Mfg=NXP Type=Zener  Vpk=10)
.MODEL  BZX84-A11   D(IS=2.6665E-18  N=.82284  RS=.51617  IKF=11.760E-3  CJO=38.612E-12  M=.32962  VJ=.58913  ISR=592.87E-12  BV=11.119  IBV=.54544  TT=3.2172E-6  Mfg=NXP Type=Zener  Vpk=11)
.MODEL  BZX84-A12   D(IS=2.6665E-18  N=.82284  RS=.51617  IKF=11.760E-3  CJO=48.079E-12  M=.32805  VJ=.62172  ISR=47.692E-12  BV=12.119  IBV=.54544  TT=825.22E-9  Mfg=NXP Type=Zener  Vpk=12)
.MODEL  BZX84-A13   D(IS=110.88E-18  N=.92657  RS=.85899  IKF=149.75  CJO=44.598E-12  M=.32761  VJ=.62204  ISR=43.951E-12  BV=13.118  IBV=.56589  TT=825.22E-9  Mfg=NXP Type=Zener  Vpk=13)
.MODEL  BZX84-A15   D(IS=2.6665E-18  N=.82284  RS=.51617  IKF=11.760E-3  CJO=28.508E-12  M=.33087  VJ=.64691  ISR=38.989E-12  BV=15.119  IBV=.54544  TT=2.9720E-6  Mfg=NXP Type=Zener  Vpk=15)
.MODEL  BZX84-A20   D(IS=2.6665E-18  N=.82284  RS=.51617  IKF=11.760E-3  CJO=22.793E-12  M=.3421  VJ=.68922  ISR=39.678E-12  BV=20.108  IBV=.35715  TT=2.6690E-6  Mfg=NXP Type=Zener  Vpk=20)
.MODEL  BZX84-A27   D(IS=2.6665E-18  N=.82284  RS=.51617  IKF=11.760E-3  CJO=18.788E-12  M=.33528  VJ=.64221  ISR=48.736E-12  BV=27.143  IBV=.52819  TT=2.5247E-6  Mfg=NXP Type=Zener  Vpk=27)
.MODEL  BZX84-A2V4  D(IS=2.6665E-18  N=.82284  RS=.51617  IKF=11.760E-3  CJO=243.19E-12  M=.28964  VJ=.58074  ISR=4.7427E-6  BV=2.4673  IBV=74.447E-3  TT=29.431E-9  Mfg=NXP Type=Zener  Vpk=2.4)
.MODEL  BZX84-A2V7  D(IS=110.88E-18  N=.92657  RS=.85899  IKF=147.68  CJO=344.69E-12  M=.31964  VJ=.72935  ISR=1.5159E-6  BV=2.7639  IBV=69.770E-3  TT=17.889E-9  Mfg=NXP Type=Zener  Vpk=2.7)
.MODEL  BZX84-A33   D(IS=110.88E-18  N=.92657  RS=.85899  IKF=149.75  CJO=16.677E-12  M=.34957  VJ=.66723  ISR=100.00E-12  BV=33.134  IBV=.37878  TT=2.2362E-6  Mfg=NXP Type=Zener  Vpk=33)
.MODEL  BZX84-A36   D(IS=110.88E-18  N=.92657  RS=.85899  IKF=149.75  CJO=18.666E-12  M=.36733  VJ=.74368  ISR=42.919E-12  BV=36.134  IBV=.37878  TT=810.79E-9  Mfg=NXP Type=Zener  Vpk=36)
.MODEL  BZX84-A39   D(IS=2.6665E-18  N=.82284  RS=.51617  IKF=11.760E-3  CJO=15.275E-12  M=.35813  VJ=.71073  ISR=54.711E-12  BV=39.131  IBV=.32753  TT=2.6690E-6  Mfg=NXP Type=Zener  Vpk=39)
.MODEL  BZX84-A3V0  D(IS=2.6665E-18  N=.82284  RS=.51617  IKF=11.760E-3  CJO=336.44E-12  M=.32418  VJ=.73919  ISR=468.92E-9   BV=3.0638  IBV=65.080E-3  TT=10.676E-9  Mfg=NXP Type=Zener  Vpk=3.0)
.MODEL  BZX84-A3V3  D(IS=7.035E-16  N=0.9809  BV=3.3  IBV=0.005  RS=0.3487  CJO=3.162E-10  VJ=0.6687  M=0.3164  FC=0.5  Mfg=NXP Type=Zener  Vpk=3.3)
.MODEL  BZX84-A3V6  D(IS=110.88E-18  N=.92657  RS=.85899  IKF=147.68  CJO=219.21E-12  M=.31686  VJ=.57426  ISR=18.160E-9   BV=3.6606  IBV=61.478E-3  TT=125.51E-9  Mfg=NXP Type=Zener  Vpk=3.6)
.MODEL  BZX84-A3V9  D(IS=2.6665E-18  N=.82284  RS=.51617  IKF=11.760E-3  CJO=285.49E-12  M=.36607  VJ=.84797  ISR=13.080E-9   BV=3.9622  IBV=61.229E-3  TT=37.510E-9  Mfg=NXP Type=Zener  Vpk=3.9)
.MODEL  BZX84-A43   D(IS=2.6665E-18  N=.82284  RS=.51617  IKF=11.760E-3  CJO=14.596E-12  M=.3553   VJ=.6878   ISR=69.202E-12  BV=43.128  IBV=.29071  TT=2.4670E-6  Mfg=NXP Type=Zener  Vpk=43)
.MODEL  BZX84-A4V3  D(IS=7.035E-16  N=0.9809  BV=4.3  IBV=0.005  RS=0.3487  CJO=2.715E-10  VJ=0.7721  M=0.3557  FC=0.5  Mfg=NXP Type=Zener  Vpk=4.3)
.MODEL  BZX84-A4V7  D(IS=110.88E-18  N=.92657  RS=.85899  IKF=147.68  CJO=171.18E-12  M=.32124  VJ=.57636  ISR=3.2814E-9  BV=4.7745  IBV=.10527  TT=108.78E-9  Mfg=NXP Type=Zener  Vpk=4.7)
.MODEL  BZX84-A51   D(IS=2.6665E-18  N=.82284  RS=.51617  IKF=11.760E-3  CJO=14.030E-12  M=.33875  VJ=.76575  ISR=60.382E-12  BV=51.120  IBV=.21741  TT=2.3083E-6  Mfg=NXP Type=Zener  Vpk=51)
.MODEL  BZX84-A5V6  D(IS=2.6665E-18  N=.82284  RS=.51617  IKF=11.760E-3  CJO=137.10E-12  M=.34532  VJ=.72637  ISR=1.2666E-9  BV=5.7078  IBV=.35715  TT=78.483E-9  Mfg=NXP Type=Zener  Vpk=5.6)
.MODEL  BZX84-A6V2  D(IS=110.88E-18  N=.92657  RS=.85899  IKF=149.75  CJO=108.46E-12  M=.34501  VJ=.72044  ISR=48.986E-9  BV=6.3329  IBV=1.0062  TT=121.76E-9  Mfg=NXP Type=Zener  Vpk=6.2)
.MODEL  BZX84-A6V8  D(IS=110.88E-18  N=.92657  RS=.85899  IKF=149.75  CJO=93.867E-12  M=.35256  VJ=.75339  ISR=522.33E-12  BV=6.9329  IBV=1.0062  TT=231.41E-9  Mfg=NXP Type=Zener  Vpk=6.8)
.MODEL  BZX84-A75   D(IS=9.794E-15  N=1.101  BV=75  IBV=0.002  RS=0.3363  CJO=1.246E-11  VJ=0.822  M=0.4052  FC=0.5  Mfg=NXP Type=Zener  Vpk=75)
.MODEL  BZX84-A7V5  D(IS=2.6665E-18  N=.82284  RS=.51617  IKF=11.760E-3  CJO=63.513E-12  M=.33559  VJ=.66795  ISR=1.1222E-9  BV=7.6329  IBV=.94329  TT=2.7411E-6  Mfg=NXP Type=Zener  Vpk=7.5)
.MODEL  BZX84-A8V2  D(IS=110.88E-18  N=.92657  RS=.85899  IKF=149.75  CJO=54.185E-12  M=.33443  VJ=.66823  ISR=146.75E-12  BV=8.3329  IBV=1.0062  TT=2.7700E-6  Mfg=NXP Type=Zener  Vpk=8.2)
.MODEL  BZX84-A9V1  D(IS=110.88E-18  N=.92657  RS=.85899  IKF=149.75  CJO=49.094E-12  M=.33781  VJ=.69176  ISR=53.426E-12  BV=9.2329  IBV=1.0062  TT=2.7700E-6  Mfg=NXP Type=Zener  Vpk=9.1)

.MODEL  BZX84-B10  D(IS=110.88E-18  N=.92657  RS=.85899  IKF=149.75  CJO=57.292E-12  M=.33236  VJ=.67995  ISR=49.142E-12  BV=10.124  IBV=.72438  TT=973.82E-9  Mfg=NXP Type=Zener  Vpk=10)
.MODEL  BZX84-B11  D(IS=2.6665E-18  N=.82284  RS=.51617  IKF=11.760E-3  CJO=38.612E-12  M=.32962  VJ=.58913  ISR=592.87E-12  BV=11.119  IBV=.54544  TT=3.2172E-6  Mfg=NXP Type=Zener  Vpk=11)
.MODEL  BZX84-B12  D(IS=2.6665E-18  N=.82284  RS=.51617  IKF=11.760E-3  CJO=48.079E-12  M=.32805  VJ=.62172  ISR=47.692E-12  BV=12.119  IBV=.54544  TT=825.22E-9  Mfg=NXP Type=Zener  Vpk=12)
.MODEL  BZX84-B13  D(IS=110.88E-18  N=.92657  RS=.85899  IKF=149.75  CJO=44.598E-12  M=.32761  VJ=.62204  ISR=43.951E-12  BV=13.118  IBV=.56589  TT=825.22E-9  Mfg=NXP Type=Zener  Vpk=13)
.MODEL  BZX84-B15  D(IS=2.6665E-18  N=.82284  RS=.51617  IKF=11.760E-3  CJO=28.508E-12  M=.33087  VJ=.64691  ISR=38.989E-12  BV=15.119  IBV=.54544  TT=2.9720E-6  Mfg=NXP Type=Zener  Vpk=15)
.MODEL  BZX84-B16  D(IS=2.6665E-18  N=.82284  RS=.51617  IKF=11.760E-3  CJO=34.811E-12  M=.33136  VJ=.65666  ISR=38.553E-12  BV=16.119  IBV=.54544  TT=890.14E-9  Mfg=NXP Type=Zener  Vpk=16)
.MODEL  BZX84-B18  D(IS=110.88E-18  N=.92657  RS=.85899  IKF=149.75  CJO=24.981E-12  M=.331  VJ=.64091  ISR=36.794E-12  BV=18.118  IBV=.56589  TT=2.7700E-6  Mfg=NXP Type=Zener  Vpk=18)
.MODEL  BZX84-B20  D(IS=2.6665E-18  N=.82284  RS=.51617  IKF=11.760E-3  CJO=22.793E-12  M=.3421  VJ=.68922  ISR=39.678E-12  BV=20.108  IBV=.35715  TT=2.6690E-6  Mfg=NXP Type=Zener  Vpk=20)
.MODEL  BZX84-B22  D(IS=2.6665E-18  N=.82284  RS=.51617  IKF=11.760E-3  CJO=21.189E-12  M=.33428  VJ=.65115  ISR=39.038E-12  BV=22.100  IBV=.26549  TT=2.6690E-6  Mfg=NXP Type=Zener  Vpk=22)
.MODEL  BZX84-B24  D(IS=2.6665E-18  N=.82284  RS=.51617  IKF=11.760E-3  CJO=24.790E-12  M=.33892  VJ=.67825  ISR=42.591E-12  BV=24.094  IBV=.21128  TT=882.93E-9  Mfg=NXP Type=Zener  Vpk=24)
.MODEL  BZX84-B27  D(IS=2.6665E-18  N=.82284  RS=.51617  IKF=11.760E-3  CJO=18.788E-12  M=.33528  VJ=.64221  ISR=48.736E-12  BV=27.143  IBV=.52819  TT=2.5247E-6  Mfg=NXP Type=Zener  Vpk=27)
.MODEL  BZX84-B2V4  D(IS=2.6665E-18  N=.82284  RS=.51617  IKF=11.760E-3  CJO=243.19E-12  M=.28964  VJ=.58074  ISR=4.7427E-6  BV=2.4673  IBV=74.447E-3  TT=29.431E-9  Mfg=NXP Type=Zener  Vpk=2.4)
.MODEL  BZX84-B2V7  D(IS=110.88E-18  N=.92657  RS=.85899  IKF=147.68  CJO=344.69E-12  M=.31964  VJ=.72935  ISR=1.5159E-6  BV=2.7639  IBV=69.770E-3  TT=17.889E-9  Mfg=NXP Type=Zener  Vpk=2.7)
.MODEL  BZX84-B30  D(IS=110.88E-18  N=.92657  RS=.85899  IKF=149.75  CJO=17.398E-12  M=.33936  VJ=.65046  ISR=47.874E-12  BV=30.138  IBV=.44378  TT=2.5247E-6  Mfg=NXP Type=Zener  Vpk=30)
.MODEL  BZX84-B33  D(IS=110.88E-18  N=.92657  RS=.85899  IKF=149.75  CJO=16.677E-12  M=.34957  VJ=.66723  ISR=100.00E-12  BV=33.134  IBV=.37878  TT=2.2362E-6  Mfg=NXP Type=Zener  Vpk=33)
.MODEL  BZX84-B36  D(IS=110.88E-18  N=.92657  RS=.85899  IKF=149.75  CJO=18.666E-12  M=.36733  VJ=.74368  ISR=42.919E-12  BV=36.134  IBV=.37878  TT=810.79E-9  Mfg=NXP Type=Zener  Vpk=36)
.MODEL  BZX84-B39  D(IS=2.6665E-18  N=.82284  RS=.51617  IKF=11.760E-3  CJO=15.275E-12  M=.35813  VJ=.71073  ISR=54.711E-12  BV=39.131  IBV=.32753  TT=2.6690E-6  Mfg=NXP Type=Zener  Vpk=39)
.MODEL  BZX84-B3V0  D(IS=2.6665E-18  N=.82284  RS=.51617  IKF=11.760E-3  CJO=336.44E-12  M=.32418  VJ=.73919  ISR=468.92E-9  BV=3.0638  IBV=65.080E-3  TT=10.676E-9  Mfg=NXP Type=Zener  Vpk=3.0)
.MODEL  BZX84-B3V3  D(IS=7.035E-16  N=0.9809  BV=3.3  IBV=0.005  RS=0.3487  CJO=3.162E-10  VJ=0.6687  M=0.3164  FC=0.5  Mfg=NXP Type=Zener  Vpk=3.3)
.MODEL  BZX84-B3V6  D(IS=110.88E-18  N=.92657  RS=.85899  IKF=147.68  CJO=219.21E-12  M=.31686  VJ=.57426  ISR=18.160E-9  BV=3.6606  IBV=61.478E-3  TT=125.51E-9  Mfg=NXP Type=Zener  Vpk=3.6)
.MODEL  BZX84-B43  D(IS=2.6665E-18  N=.82284  RS=.51617  IKF=11.760E-3  CJO=14.596E-12  M=.3553  VJ=.6878  ISR=69.202E-12  BV=43.128  IBV=.29071  TT=2.4670E-6  Mfg=NXP Type=Zener  Vpk=43)
.MODEL  BZX84-B47  D(IS=2.6665E-18  N=.82284  RS=.51617  IKF=11.760E-3  CJO=15.100E-12  M=.39802  VJ=.99859  ISR=51.813E-12  BV=47.125  IBV=.26134  TT=810.79E-9  Mfg=NXP Type=Zener  Vpk=47)
.MODEL  BZX84-B51  D(IS=2.6665E-18  N=.82284  RS=.51617  IKF=11.760E-3  CJO=14.030E-12  M=.33875  VJ=.76575  ISR=60.382E-12  BV=51.120  IBV=.21741  TT=2.3083E-6  Mfg=NXP Type=Zener  Vpk=51)
.MODEL  BZX84-B56  D(IS=2.6665E-18  N=.82284  RS=.51617  IKF=11.760E-3  CJO=12.024E-12  M=.34443  VJ=.60675  ISR=53.794E-12  BV=56.116  IBV=.18612  TT=2.3083E-6  Mfg=NXP Type=Zener  Vpk=56)
.MODEL  BZX84-B5V6 D(IS=2.6665E-18  N=.82284  RS=.51617  IKF=11.760E-3  CJO=137.10E-12  M=.34532  VJ=.72637  ISR=1.2666E-9  BV=5.7078  IBV=.35715  TT=78.483E-9  Mfg=NXP Type=Zener  Vpk=5.6)
.MODEL  BZX84-B62  D(IS=110.88E-18  N=.92657  RS=.85899  IKF=149.75  CJO=11.525E-12  M=.35851  VJ=.65914  ISR=51.091E-12  BV=62.112  IBV=.16341  TT=2.2362E-6  Mfg=NXP Type=Zener  Vpk=62)
.MODEL  BZX84-B68  D(IS=2.6665E-18  N=.82284  RS=.51617  IKF=11.760E-3  CJO=11.121E-12  M=.34915  VJ=.60561  ISR=53.010E-12  BV=68.110  IBV=.14452  TT=2.6257E-6  Mfg=NXP Type=Zener  Vpk=68)
.MODEL  BZX84-B6V2  D(IS=110.88E-18  N=.92657  RS=.85899  IKF=149.75  CJO=108.46E-12  M=.34501  VJ=.72044  ISR=48.986E-9  BV=6.3329  IBV=1.0062  TT=121.76E-9  Mfg=NXP Type=Zener  Vpk=6.2)
.MODEL  BZX84-B6V8  D(IS=110.88E-18  N=.92657  RS=.85899  IKF=149.75  CJO=93.867E-12  M=.35256  VJ=.75339  ISR=522.33E-12  BV=6.9329  IBV=1.0062  TT=231.41E-9  Mfg=NXP Type=Zener  Vpk=6.8)
.MODEL  BZX84-B75  D(IS=9.794E-15  N=1.101  BV=75  IBV=0.002  RS=0.3363  CJO=1.246E-11  VJ=0.822  M=0.4052  FC=0.5  Mfg=NXP Type=Zener  Vpk=75)
.MODEL  BZX84-B7V5  D(IS=2.6665E-18  N=.82284  RS=.51617  IKF=11.760E-3  CJO=63.513E-12  M=.33559  VJ=.66795  ISR=1.1222E-9  BV=7.6329  IBV=.94329  TT=2.7411E-6  Mfg=NXP Type=Zener  Vpk=7.5)
.MODEL  BZX84-B8V2  D(IS=110.88E-18  N=.92657  RS=.85899  IKF=149.75  CJO=54.185E-12  M=.33443  VJ=.66823  ISR=146.75E-12  BV=8.3329  IBV=1.0062  TT=2.7700E-6  Mfg=NXP Type=Zener  Vpk=8.2)
.MODEL  BZX84-B9V1  D(IS=110.88E-18  N=.92657  RS=.85899  IKF=149.75  CJO=49.094E-12  M=.33781  VJ=.69176  ISR=53.426E-12  BV=9.2329  IBV=1.0062  TT=2.7700E-6  Mfg=NXP Type=Zener  Vpk=9.1)

.MODEL  BZX84-C10  D(IS=110.88E-18  N=.92657  RS=.85899  IKF=149.75  CJO=57.292E-12  M=.33236  VJ=.67995  ISR=49.142E-12  BV=10.124  IBV=.72438  TT=973.82E-9  Mfg=NXP Type=Zener  Vpk=10)
.MODEL  BZX84-C11  D(IS=2.6665E-18  N=.82284  RS=.51617  IKF=11.760E-3  CJO=38.612E-12  M=.32962  VJ=.58913  ISR=592.87E-12  BV=11.119  IBV=.54544  TT=3.2172E-6  Mfg=NXP Type=Zener  Vpk=11)
.MODEL  BZX84-C12  D(IS=2.6665E-18  N=.82284  RS=.51617  IKF=11.760E-3  CJO=48.079E-12  M=.32805  VJ=.62172  ISR=47.692E-12  BV=12.119  IBV=.54544  TT=825.22E-9  Mfg=NXP Type=Zener  Vpk=12)
.MODEL  BZX84-C13  D(IS=110.88E-18  N=.92657  RS=.85899  IKF=149.75  CJO=44.598E-12  M=.32761  VJ=.62204  ISR=43.951E-12  BV=13.118  IBV=.56589  TT=825.22E-9  Mfg=NXP Type=Zener  Vpk=13)
.MODEL  BZX84-C15  D(IS=2.6665E-18  N=.82284  RS=.51617  IKF=11.760E-3  CJO=28.508E-12  M=.33087  VJ=.64691  ISR=38.989E-12  BV=15.119  IBV=.54544  TT=2.9720E-6  Mfg=NXP Type=Zener  Vpk=15)
.MODEL  BZX84-C16  D(IS=2.6665E-18  N=.82284  RS=.51617  IKF=11.760E-3  CJO=34.811E-12  M=.33136  VJ=.65666  ISR=38.553E-12  BV=16.119  IBV=.54544  TT=890.14E-9  Mfg=NXP Type=Zener  Vpk=16)
.MODEL  BZX84-C18  D(IS=110.88E-18  N=.92657  RS=.85899  IKF=149.75  CJO=24.981E-12  M=.331  VJ=.64091  ISR=36.794E-12  BV=18.118  IBV=.56589  TT=2.7700E-6  Mfg=NXP Type=Zener  Vpk=18)
.MODEL  BZX84-C20  D(IS=2.6665E-18  N=.82284  RS=.51617  IKF=11.760E-3  CJO=22.793E-12  M=.3421  VJ=.68922  ISR=39.678E-12  BV=20.108  IBV=.35715  TT=2.6690E-6  Mfg=NXP Type=Zener  Vpk=20)
.MODEL  BZX84-C22  D(IS=2.6665E-18  N=.82284  RS=.51617  IKF=11.760E-3  CJO=21.189E-12  M=.33428  VJ=.65115  ISR=39.038E-12  BV=22.100  IBV=.26549  TT=2.6690E-6  Mfg=NXP Type=Zener  Vpk=22)
.MODEL  BZX84-C24  D(IS=2.6665E-18  N=.82284  RS=.51617  IKF=11.760E-3  CJO=24.790E-12  M=.33892  VJ=.67825  ISR=42.591E-12  BV=24.094  IBV=.21128  TT=882.93E-9  Mfg=NXP Type=Zener  Vpk=24)
.MODEL  BZX84-C27  D(IS=2.6665E-18  N=.82284  RS=.51617  IKF=11.760E-3  CJO=18.788E-12  M=.33528  VJ=.64221  ISR=48.736E-12  BV=27.143  IBV=.52819  TT=2.5247E-6  Mfg=NXP Type=Zener  Vpk=27)
.MODEL  BZX84-C2V7 D(IS=110.88E-18  N=.92657  RS=.85899  IKF=147.68  CJO=344.69E-12  M=.31964  VJ=.72935  ISR=1.5159E-6  BV=2.7639  IBV=69.770E-3  TT=17.889E-9  Mfg=NXP Type=Zener  Vpk=2.7)
.MODEL  BZX84-C30  D(IS=110.88E-18  N=.92657  RS=.85899  IKF=149.75  CJO=17.398E-12  M=.33936  VJ=.65046  ISR=47.874E-12  BV=30.138  IBV=.44378  TT=2.5247E-6  Mfg=NXP Type=Zener  Vpk=30)
.MODEL  BZX84-C33  D(IS=110.88E-18  N=.92657  RS=.85899  IKF=149.75  CJO=16.677E-12  M=.34957  VJ=.66723  ISR=100.00E-12  BV=33.134  IBV=.37878  TT=2.2362E-6  Mfg=NXP Type=Zener  Vpk=33)
.MODEL  BZX84-C36  D(IS=110.88E-18  N=.92657  RS=.85899  IKF=149.75  CJO=18.666E-12  M=.36733  VJ=.74368  ISR=42.919E-12  BV=36.134  IBV=.37878  TT=810.79E-9  Mfg=NXP Type=Zener  Vpk=36)
.MODEL  BZX84-C39  D(IS=2.6665E-18  N=.82284  RS=.51617  IKF=11.760E-3  CJO=15.275E-12  M=.35813  VJ=.71073  ISR=54.711E-12  BV=39.131  IBV=.32753  TT=2.6690E-6  Mfg=NXP Type=Zener  Vpk=39)
.MODEL  BZX84-C3V0 D(IS=2.6665E-18  N=.82284  RS=.51617  IKF=11.760E-3  CJO=336.44E-12  M=.32418  VJ=.73919  ISR=468.92E-9  BV=3.0638  IBV=65.080E-3  TT=10.676E-9  Mfg=NXP Type=Zener  Vpk=3.0)
.MODEL  BZX84-C3V6 D(IS=110.88E-18  N=.92657  RS=.85899  IKF=147.68  CJO=219.21E-12  M=.31686  VJ=.57426  ISR=18.160E-9  BV=3.6606  IBV=61.478E-3  TT=125.51E-9  Mfg=NXP Type=Zener  Vpk=3.6)
.MODEL  BZX84-C3V9 D(IS=2.6665E-18  N=.82284  RS=.51617  IKF=11.760E-3  CJO=285.49E-12  M=.36607  VJ=.84797  ISR=13.080E-9  BV=3.9622  IBV=61.229E-3  TT=37.510E-9  Mfg=NXP Type=Zener  Vpk=3.9)
.MODEL  BZX84-C43  D(IS=2.6665E-18  N=.82284  RS=.51617  IKF=11.760E-3  CJO=14.596E-12  M=.3553  VJ=.6878  ISR=69.202E-12  BV=43.128  IBV=.29071  TT=2.4670E-6  Mfg=NXP Type=Zener  Vpk=43)
.MODEL  BZX84-C47  D(IS=2.6665E-18  N=.82284  RS=.51617  IKF=11.760E-3  CJO=15.100E-12  M=.39802  VJ=.99859  ISR=51.813E-12  BV=47.125  IBV=.26134  TT=810.79E-9  Mfg=NXP Type=Zener  Vpk=47)
.MODEL  BZX84-C4V3 D(IS=7.035E-16  N=0.9809  BV=4.3  IBV=0.005  RS=0.3487  CJO=2.715E-10  VJ=0.7721  M=0.3557  FC=0.5  Mfg=NXP Type=Zener  Vpk=4.3)
.MODEL  BZX84-C51  D(IS=2.6665E-18  N=.82284  RS=.51617  IKF=11.760E-3  CJO=14.030E-12  M=.33875  VJ=.76575  ISR=60.382E-12  BV=51.120  IBV=.21741  TT=2.3083E-6  Mfg=NXP Type=Zener  Vpk=51)
.MODEL  BZX84-C56  D(IS=2.6665E-18  N=.82284  RS=.51617  IKF=11.760E-3  CJO=12.024E-12  M=.34443  VJ=.60675  ISR=53.794E-12  BV=56.116  IBV=.18612  TT=2.3083E-6  Mfg=NXP Type=Zener  Vpk=56)
.MODEL  BZX84-C5V1 D(IS=2.6665E-18  N=.82284  RS=.51617  IKF=11.760E-3  CJO=232.29E-12  M=.35004  VJ=.79587  ISR=150.40E-12  BV=5.1760  IBV=.10454  TT=43.858E-9  Mfg=NXP Type=Zener  Vpk=5.1)
.MODEL  BZX84-C5V6 D(IS=2.6665E-18  N=.82284  RS=.51617  IKF=11.760E-3  CJO=137.10E-12  M=.34532  VJ=.72637  ISR=1.2666E-9  BV=5.7078  IBV=.35715  TT=78.483E-9  Mfg=NXP Type=Zener  Vpk=5.6)
.MODEL  BZX84-C62  D(IS=110.88E-18  N=.92657  RS=.85899  IKF=149.75  CJO=11.525E-12  M=.35851  VJ=.65914  ISR=51.091E-12  BV=62.112  IBV=.16341  TT=2.2362E-6  Mfg=NXP Type=Zener  Vpk=62)
.MODEL  BZX84-C68  D(IS=2.6665E-18  N=.82284  RS=.51617  IKF=11.760E-3  CJO=11.121E-12  M=.34915  VJ=.60561  ISR=53.010E-12  BV=68.110  IBV=.14452  TT=2.6257E-6  Mfg=NXP Type=Zener  Vpk=68)
.MODEL  BZX84-C6V2 D(IS=110.88E-18  N=.92657  RS=.85899  IKF=149.75  CJO=108.46E-12  M=.34501  VJ=.72044  ISR=48.986E-9  BV=6.3329  IBV=1.0062  TT=121.76E-9  Mfg=NXP Type=Zener  Vpk=6.2)
.MODEL  BZX84-C6V8 D(IS=110.88E-18  N=.92657  RS=.85899  IKF=149.75  CJO=93.867E-12  M=.35256  VJ=.75339  ISR=522.33E-12  BV=6.9329  IBV=1.0062  TT=231.41E-9  Mfg=NXP Type=Zener  Vpk=6.8)
.MODEL  BZX84-C75  D(IS=9.794E-15  N=1.101  BV=75  IBV=0.002  RS=0.3363  CJO=1.246E-11  VJ=0.822  M=0.4052  FC=0.5  Mfg=NXP Type=Zener  Vpk=75)
.MODEL  BZX84-C7V5 D(IS=2.6665E-18  N=.82284  RS=.51617  IKF=11.760E-3  CJO=63.513E-12  M=.33559  VJ=.66795  ISR=1.1222E-9  BV=7.6329  IBV=.94329  TT=2.7411E-6  Mfg=NXP Type=Zener  Vpk=7.5)
.MODEL  BZX84-C8V2 D(IS=110.88E-18  N=.92657  RS=.85899  IKF=149.75  CJO=54.185E-12  M=.33443  VJ=.66823  ISR=146.75E-12  BV=8.3329  IBV=1.0062  TT=2.7700E-6  Mfg=NXP Type=Zener  Vpk=8.2)
.MODEL  BZX84-C9V1 D(IS=110.88E-18  N=.92657  RS=.85899  IKF=149.75  CJO=49.094E-12  M=.33781  VJ=.69176  ISR=53.426E-12  BV=9.2329  IBV=1.0062  TT=2.7700E-6  Mfg=NXP Type=Zener  Vpk=9.1)

.MODEL  BZT52C2V0 D(IS=.6n RS=15 N=3 IKF=.72u T_ABS=25)
.MODEL  BAW56 D(IS=1.705E-9 N=1.71 BV=87 IBV=0.0003 RS=1.022 CJO=1.798E-12 VJ=1.032 M=0.2987 FC=0.5 TT=3.606E-9 mfg=NXP)
.MODEL  IDEAL D(Ron=.1 Roff=1Meg CJO=1p TT=1n Vfwd=.5)