********************************************************************************
**	@author		ViKo
**	@brief		Diodes spice models
**	@date		2016.10
**	@note		place link to folder in control settings LTspice or in file.asc
**

.MODEL  BZX84-A10   D(IS=110.88E-18  N=.92657  RS=.85899  IKF=149.75  CJO=57.292E-12  M=.33236  VJ=.67995  ISR=49.142E-12  BV=10.124  IBV=.72438  TT=973.82E-9  Mfg=NXP Type=Zener  Vpk=10)
.MODEL  BZX84-A11   D(IS=2.6665E-18  N=.82284  RS=.51617  IKF=11.760E-3  CJO=38.612E-12  M=.32962  VJ=.58913  ISR=592.87E-12  BV=11.119  IBV=.54544  TT=3.2172E-6  Mfg=NXP Type=Zener  Vpk=11)
.MODEL  BZX84-A12   D(IS=2.6665E-18  N=.82284  RS=.51617  IKF=11.760E-3  CJO=48.079E-12  M=.32805  VJ=.62172  ISR=47.692E-12  BV=12.119  IBV=.54544  TT=825.22E-9  Mfg=NXP Type=Zener  Vpk=12)
.MODEL  BZX84-A13   D(IS=110.88E-18  N=.92657  RS=.85899  IKF=149.75  CJO=44.598E-12  M=.32761  VJ=.62204  ISR=43.951E-12  BV=13.118  IBV=.56589  TT=825.22E-9  Mfg=NXP Type=Zener  Vpk=13)
.MODEL  BZX84-A15   D(IS=2.6665E-18  N=.82284  RS=.51617  IKF=11.760E-3  CJO=28.508E-12  M=.33087  VJ=.64691  ISR=38.989E-12  BV=15.119  IBV=.54544  TT=2.9720E-6  Mfg=NXP Type=Zener  Vpk=15)
.MODEL  BZX84-A20   D(IS=2.6665E-18  N=.82284  RS=.51617  IKF=11.760E-3  CJO=22.793E-12  M=.3421  VJ=.68922  ISR=39.678E-12  BV=20.108  IBV=.35715  TT=2.6690E-6  Mfg=NXP Type=Zener  Vpk=20)
.MODEL  BZX84-A27   D(IS=2.6665E-18  N=.82284  RS=.51617  IKF=11.760E-3  CJO=18.788E-12  M=.33528  VJ=.64221  ISR=48.736E-12  BV=27.143  IBV=.52819  TT=2.5247E-6  Mfg=NXP Type=Zener  Vpk=27)
.MODEL  BZX84-A2V4  D(IS=2.6665E-18  N=.82284  RS=.51617  IKF=11.760E-3  CJO=243.19E-12  M=.28964  VJ=.58074  ISR=4.7427E-6  BV=2.4673  IBV=74.447E-3  TT=29.431E-9  Mfg=NXP Type=Zener  Vpk=2.4)
.MODEL  BZX84-A2V7  D(IS=110.88E-18  N=.92657  RS=.85899  IKF=147.68  CJO=344.69E-12  M=.31964  VJ=.72935  ISR=1.5159E-6  BV=2.7639  IBV=69.770E-3  TT=17.889E-9  Mfg=NXP Type=Zener  Vpk=2.7)
.MODEL  BZX84-A33   D(IS=110.88E-18  N=.92657  RS=.85899  IKF=149.75  CJO=16.677E-12  M=.34957  VJ=.66723  ISR=100.00E-12  BV=33.134  IBV=.37878  TT=2.2362E-6  Mfg=NXP Type=Zener  Vpk=33)
.MODEL  BZX84-A36   D(IS=110.88E-18  N=.92657  RS=.85899  IKF=149.75  CJO=18.666E-12  M=.36733  VJ=.74368  ISR=42.919E-12  BV=36.134  IBV=.37878  TT=810.79E-9  Mfg=NXP Type=Zener  Vpk=36)
.MODEL  BZX84-A39   D(IS=2.6665E-18  N=.82284  RS=.51617  IKF=11.760E-3  CJO=15.275E-12  M=.35813  VJ=.71073  ISR=54.711E-12  BV=39.131  IBV=.32753  TT=2.6690E-6  Mfg=NXP Type=Zener  Vpk=39)
.MODEL  BZX84-A3V0  D(IS=2.6665E-18  N=.82284  RS=.51617  IKF=11.760E-3  CJO=336.44E-12  M=.32418  VJ=.73919  ISR=468.92E-9   BV=3.0638  IBV=65.080E-3  TT=10.676E-9  Mfg=NXP Type=Zener  Vpk=3.0)
.MODEL  BZX84-A3V3  D(IS=7.035E-16   N=0.9809  BV=3.3 IBV=0.005  RS=0.3487  CJO=3.162E-10  VJ=0.6687  M=0.3164  FC=0.5  Mfg=NXP Type=Zener  Vpk=3.3)
.MODEL  BZX84-A3V6  D(IS=110.88E-18  N=.92657  RS=.85899  IKF=147.68  CJO=219.21E-12  M=.31686  VJ=.57426  ISR=18.160E-9   BV=3.6606  IBV=61.478E-3  TT=125.51E-9  Mfg=NXP Type=Zener  Vpk=3.6)
.MODEL  BZX84-A3V9  D(IS=2.6665E-18  N=.82284  RS=.51617  IKF=11.760E-3  CJO=285.49E-12  M=.36607  VJ=.84797  ISR=13.080E-9   BV=3.9622  IBV=61.229E-3  TT=37.510E-9  Mfg=NXP Type=Zener  Vpk=3.9)
.MODEL  BZX84-A43   D(IS=2.6665E-18  N=.82284  RS=.51617  IKF=11.760E-3  CJO=14.596E-12  M=.3553   VJ=.6878   ISR=69.202E-12  BV=43.128  IBV=.29071  TT=2.4670E-6  Mfg=NXP Type=Zener  Vpk=43)
.MODEL  BZX84-A4V3  D(IS=7.035E-16  N=0.9809  BV=4.3  IBV=0.005  RS=0.3487  CJO=2.715E-10  VJ=0.7721  M=0.3557  FC=0.5  Mfg=NXP Type=Zener  Vpk=4.3)
.MODEL  BZX84-A4V7  D(IS=110.88E-18  N=.92657  RS=.85899  IKF=147.68  CJO=171.18E-12  M=.32124  VJ=.57636  ISR=3.2814E-9  BV=4.7745  IBV=.10527  TT=108.78E-9  Mfg=NXP Type=Zener  Vpk=4.7)
.MODEL  BZX84-A51   D(IS=2.6665E-18  N=.82284  RS=.51617  IKF=11.760E-3  CJO=14.030E-12  M=.33875  VJ=.76575  ISR=60.382E-12  BV=51.120  IBV=.21741  TT=2.3083E-6  Mfg=NXP Type=Zener  Vpk=51)
.MODEL  BZX84-A5V6  D(IS=2.6665E-18  N=.82284  RS=.51617  IKF=11.760E-3  CJO=137.10E-12  M=.34532  VJ=.72637  ISR=1.2666E-9  BV=5.7078  IBV=.35715  TT=78.483E-9  Mfg=NXP Type=Zener  Vpk=5.6)
.MODEL  BZX84-A6V2  D(IS=110.88E-18  N=.92657  RS=.85899  IKF=149.75  CJO=108.46E-12  M=.34501  VJ=.72044  ISR=48.986E-9  BV=6.3329  IBV=1.0062  TT=121.76E-9  Mfg=NXP Type=Zener  Vpk=6.2)
.MODEL  BZX84-A6V8  D(IS=110.88E-18  N=.92657  RS=.85899  IKF=149.75  CJO=93.867E-12  M=.35256  VJ=.75339  ISR=522.33E-12  BV=6.9329  IBV=1.0062  TT=231.41E-9  Mfg=NXP Type=Zener  Vpk=6.8)
.MODEL  BZX84-A75   D(IS=9.794E-15  N=1.101  BV=75  IBV=0.002  RS=0.3363  CJO=1.246E-11  VJ=0.822  M=0.4052  FC=0.5  Mfg=NXP Type=Zener  Vpk=75)
.MODEL  BZX84-A7V5  D(IS=2.6665E-18  N=.82284  RS=.51617  IKF=11.760E-3  CJO=63.513E-12  M=.33559  VJ=.66795  ISR=1.1222E-9  BV=7.6329  IBV=.94329  TT=2.7411E-6  Mfg=NXP Type=Zener  Vpk=7.5)
.MODEL  BZX84-A8V2  D(IS=110.88E-18  N=.92657  RS=.85899  IKF=149.75  CJO=54.185E-12  M=.33443  VJ=.66823  ISR=146.75E-12  BV=8.3329  IBV=1.0062  TT=2.7700E-6  Mfg=NXP Type=Zener  Vpk=8.2)
.MODEL  BZX84-A9V1  D(IS=110.88E-18  N=.92657  RS=.85899  IKF=149.75  CJO=49.094E-12  M=.33781  VJ=.69176  ISR=53.426E-12  BV=9.2329  IBV=1.0062  TT=2.7700E-6  Mfg=NXP Type=Zener  Vpk=9.1)

.MODEL  BZX84-B10  D(IS=110.88E-18  N=.92657  RS=.85899  IKF=149.75  CJO=57.292E-12  M=.33236  VJ=.67995  ISR=49.142E-12  BV=10.124  IBV=.72438  TT=973.82E-9  Mfg=NXP Type=Zener  Vpk=10)
.MODEL  BZX84-B11  D(IS=2.6665E-18  N=.82284  RS=.51617  IKF=11.760E-3  CJO=38.612E-12  M=.32962  VJ=.58913  ISR=592.87E-12  BV=11.119  IBV=.54544  TT=3.2172E-6  Mfg=NXP Type=Zener  Vpk=11)
.MODEL  BZX84-B12  D(IS=2.6665E-18  N=.82284  RS=.51617  IKF=11.760E-3  CJO=48.079E-12  M=.32805  VJ=.62172  ISR=47.692E-12  BV=12.119  IBV=.54544  TT=825.22E-9  Mfg=NXP Type=Zener  Vpk=12)
.MODEL  BZX84-B13  D(IS=110.88E-18  N=.92657  RS=.85899  IKF=149.75  CJO=44.598E-12  M=.32761  VJ=.62204  ISR=43.951E-12  BV=13.118  IBV=.56589  TT=825.22E-9  Mfg=NXP Type=Zener  Vpk=13)
.MODEL  BZX84-B15  D(IS=2.6665E-18  N=.82284  RS=.51617  IKF=11.760E-3  CJO=28.508E-12  M=.33087  VJ=.64691  ISR=38.989E-12  BV=15.119  IBV=.54544  TT=2.9720E-6  Mfg=NXP Type=Zener  Vpk=15)
.MODEL  BZX84-B16  D(IS=2.6665E-18  N=.82284  RS=.51617  IKF=11.760E-3  CJO=34.811E-12  M=.33136  VJ=.65666  ISR=38.553E-12  BV=16.119  IBV=.54544  TT=890.14E-9  Mfg=NXP Type=Zener  Vpk=16)
.MODEL  BZX84-B18  D(IS=110.88E-18  N=.92657  RS=.85899  IKF=149.75  CJO=24.981E-12  M=.331  VJ=.64091  ISR=36.794E-12  BV=18.118  IBV=.56589  TT=2.7700E-6  Mfg=NXP Type=Zener  Vpk=18)
.MODEL  BZX84-B20  D(IS=2.6665E-18  N=.82284  RS=.51617  IKF=11.760E-3  CJO=22.793E-12  M=.3421  VJ=.68922  ISR=39.678E-12  BV=20.108  IBV=.35715  TT=2.6690E-6  Mfg=NXP Type=Zener  Vpk=20)
.MODEL  BZX84-B22  D(IS=2.6665E-18  N=.82284  RS=.51617  IKF=11.760E-3  CJO=21.189E-12  M=.33428  VJ=.65115  ISR=39.038E-12  BV=22.100  IBV=.26549  TT=2.6690E-6  Mfg=NXP Type=Zener  Vpk=22)
.MODEL  BZX84-B24  D(IS=2.6665E-18  N=.82284  RS=.51617  IKF=11.760E-3  CJO=24.790E-12  M=.33892  VJ=.67825  ISR=42.591E-12  BV=24.094  IBV=.21128  TT=882.93E-9  Mfg=NXP Type=Zener  Vpk=24)
.MODEL  BZX84-B27  D(IS=2.6665E-18  N=.82284  RS=.51617  IKF=11.760E-3  CJO=18.788E-12  M=.33528  VJ=.64221  ISR=48.736E-12  BV=27.143  IBV=.52819  TT=2.5247E-6  Mfg=NXP Type=Zener  Vpk=27)
.MODEL  BZX84-B2V4  D(IS=2.6665E-18  N=.82284  RS=.51617  IKF=11.760E-3  CJO=243.19E-12  M=.28964  VJ=.58074  ISR=4.7427E-6  BV=2.4673  IBV=74.447E-3  TT=29.431E-9  Mfg=NXP Type=Zener  Vpk=2.4)
.MODEL  BZX84-B2V7  D(IS=110.88E-18  N=.92657  RS=.85899  IKF=147.68  CJO=344.69E-12  M=.31964  VJ=.72935  ISR=1.5159E-6  BV=2.7639  IBV=69.770E-3  TT=17.889E-9  Mfg=NXP Type=Zener  Vpk=2.7)
.MODEL  BZX84-B30  D(IS=110.88E-18  N=.92657  RS=.85899  IKF=149.75  CJO=17.398E-12  M=.33936  VJ=.65046  ISR=47.874E-12  BV=30.138  IBV=.44378  TT=2.5247E-6  Mfg=NXP Type=Zener  Vpk=30)
.MODEL  BZX84-B33  D(IS=110.88E-18  N=.92657  RS=.85899  IKF=149.75  CJO=16.677E-12  M=.34957  VJ=.66723  ISR=100.00E-12  BV=33.134  IBV=.37878  TT=2.2362E-6  Mfg=NXP Type=Zener  Vpk=33)
.MODEL  BZX84-B36  D(IS=110.88E-18  N=.92657  RS=.85899  IKF=149.75  CJO=18.666E-12  M=.36733  VJ=.74368  ISR=42.919E-12  BV=36.134  IBV=.37878  TT=810.79E-9  Mfg=NXP Type=Zener  Vpk=36)
.MODEL  BZX84-B39  D(IS=2.6665E-18  N=.82284  RS=.51617  IKF=11.760E-3  CJO=15.275E-12  M=.35813  VJ=.71073  ISR=54.711E-12  BV=39.131  IBV=.32753  TT=2.6690E-6  Mfg=NXP Type=Zener  Vpk=39)
.MODEL  BZX84-B3V0  D(IS=2.6665E-18  N=.82284  RS=.51617  IKF=11.760E-3  CJO=336.44E-12  M=.32418  VJ=.73919  ISR=468.92E-9  BV=3.0638  IBV=65.080E-3  TT=10.676E-9  Mfg=NXP Type=Zener  Vpk=3.0)
.MODEL  BZX84-B3V3  D(IS=7.035E-16  N=0.9809  BV=3.3  IBV=0.005  RS=0.3487  CJO=3.162E-10  VJ=0.6687  M=0.3164  FC=0.5  Mfg=NXP Type=Zener  Vpk=3.3)
.MODEL  BZX84-B3V6  D(IS=110.88E-18  N=.92657  RS=.85899  IKF=147.68  CJO=219.21E-12  M=.31686  VJ=.57426  ISR=18.160E-9  BV=3.6606  IBV=61.478E-3  TT=125.51E-9  Mfg=NXP Type=Zener  Vpk=3.6)
.MODEL  BZX84-B43  D(IS=2.6665E-18  N=.82284  RS=.51617  IKF=11.760E-3  CJO=14.596E-12  M=.3553  VJ=.6878  ISR=69.202E-12  BV=43.128  IBV=.29071  TT=2.4670E-6  Mfg=NXP Type=Zener  Vpk=43)
.MODEL  BZX84-B47  D(IS=2.6665E-18  N=.82284  RS=.51617  IKF=11.760E-3  CJO=15.100E-12  M=.39802  VJ=.99859  ISR=51.813E-12  BV=47.125  IBV=.26134  TT=810.79E-9  Mfg=NXP Type=Zener  Vpk=47)
.MODEL  BZX84-B51  D(IS=2.6665E-18  N=.82284  RS=.51617  IKF=11.760E-3  CJO=14.030E-12  M=.33875  VJ=.76575  ISR=60.382E-12  BV=51.120  IBV=.21741  TT=2.3083E-6  Mfg=NXP Type=Zener  Vpk=51)
.MODEL  BZX84-B56  D(IS=2.6665E-18  N=.82284  RS=.51617  IKF=11.760E-3  CJO=12.024E-12  M=.34443  VJ=.60675  ISR=53.794E-12  BV=56.116  IBV=.18612  TT=2.3083E-6  Mfg=NXP Type=Zener  Vpk=56)
.MODEL  BZX84-B5V6 D(IS=2.6665E-18  N=.82284  RS=.51617  IKF=11.760E-3  CJO=137.10E-12  M=.34532  VJ=.72637  ISR=1.2666E-9  BV=5.7078  IBV=.35715  TT=78.483E-9  Mfg=NXP Type=Zener  Vpk=5.6)
.MODEL  BZX84-B62  D(IS=110.88E-18  N=.92657  RS=.85899  IKF=149.75  CJO=11.525E-12  M=.35851  VJ=.65914  ISR=51.091E-12  BV=62.112  IBV=.16341  TT=2.2362E-6  Mfg=NXP Type=Zener  Vpk=62)
.MODEL  BZX84-B68  D(IS=2.6665E-18  N=.82284  RS=.51617  IKF=11.760E-3  CJO=11.121E-12  M=.34915  VJ=.60561  ISR=53.010E-12  BV=68.110  IBV=.14452  TT=2.6257E-6  Mfg=NXP Type=Zener  Vpk=68)
.MODEL  BZX84-B6V2  D(IS=110.88E-18  N=.92657  RS=.85899  IKF=149.75  CJO=108.46E-12  M=.34501  VJ=.72044  ISR=48.986E-9  BV=6.3329  IBV=1.0062  TT=121.76E-9  Mfg=NXP Type=Zener  Vpk=6.2)
.MODEL  BZX84-B6V8  D(IS=110.88E-18  N=.92657  RS=.85899  IKF=149.75  CJO=93.867E-12  M=.35256  VJ=.75339  ISR=522.33E-12  BV=6.9329  IBV=1.0062  TT=231.41E-9  Mfg=NXP Type=Zener  Vpk=6.8)
.MODEL  BZX84-B75  D(IS=9.794E-15  N=1.101  BV=75  IBV=0.002  RS=0.3363  CJO=1.246E-11  VJ=0.822  M=0.4052  FC=0.5  Mfg=NXP Type=Zener  Vpk=75)
.MODEL  BZX84-B7V5  D(IS=2.6665E-18  N=.82284  RS=.51617  IKF=11.760E-3  CJO=63.513E-12  M=.33559  VJ=.66795  ISR=1.1222E-9  BV=7.6329  IBV=.94329  TT=2.7411E-6  Mfg=NXP Type=Zener  Vpk=7.5)
.MODEL  BZX84-B8V2  D(IS=110.88E-18  N=.92657  RS=.85899  IKF=149.75  CJO=54.185E-12  M=.33443  VJ=.66823  ISR=146.75E-12  BV=8.3329  IBV=1.0062  TT=2.7700E-6  Mfg=NXP Type=Zener  Vpk=8.2)
.MODEL  BZX84-B9V1  D(IS=110.88E-18  N=.92657  RS=.85899  IKF=149.75  CJO=49.094E-12  M=.33781  VJ=.69176  ISR=53.426E-12  BV=9.2329  IBV=1.0062  TT=2.7700E-6  Mfg=NXP Type=Zener  Vpk=9.1)

.MODEL  BZX84-C10  D(IS=110.88E-18  N=.92657  RS=.85899  IKF=149.75  CJO=57.292E-12  M=.33236  VJ=.67995  ISR=49.142E-12  BV=10.124  IBV=.72438  TT=973.82E-9  Mfg=NXP Type=Zener  Vpk=10)
.MODEL  BZX84-C11  D(IS=2.6665E-18  N=.82284  RS=.51617  IKF=11.760E-3  CJO=38.612E-12  M=.32962  VJ=.58913  ISR=592.87E-12  BV=11.119  IBV=.54544  TT=3.2172E-6  Mfg=NXP Type=Zener  Vpk=11)
.MODEL  BZX84-C12  D(IS=2.6665E-18  N=.82284  RS=.51617  IKF=11.760E-3  CJO=48.079E-12  M=.32805  VJ=.62172  ISR=47.692E-12  BV=12.119  IBV=.54544  TT=825.22E-9  Mfg=NXP Type=Zener  Vpk=12)
.MODEL  BZX84-C13  D(IS=110.88E-18  N=.92657  RS=.85899  IKF=149.75  CJO=44.598E-12  M=.32761  VJ=.62204  ISR=43.951E-12  BV=13.118  IBV=.56589  TT=825.22E-9  Mfg=NXP Type=Zener  Vpk=13)
.MODEL  BZX84-C15  D(IS=2.6665E-18  N=.82284  RS=.51617  IKF=11.760E-3  CJO=28.508E-12  M=.33087  VJ=.64691  ISR=38.989E-12  BV=15.119  IBV=.54544  TT=2.9720E-6  Mfg=NXP Type=Zener  Vpk=15)
.MODEL  BZX84-C16  D(IS=2.6665E-18  N=.82284  RS=.51617  IKF=11.760E-3  CJO=34.811E-12  M=.33136  VJ=.65666  ISR=38.553E-12  BV=16.119  IBV=.54544  TT=890.14E-9  Mfg=NXP Type=Zener  Vpk=16)
.MODEL  BZX84-C18  D(IS=110.88E-18  N=.92657  RS=.85899  IKF=149.75  CJO=24.981E-12  M=.331  VJ=.64091  ISR=36.794E-12  BV=18.118  IBV=.56589  TT=2.7700E-6  Mfg=NXP Type=Zener  Vpk=18)
.MODEL  BZX84-C20  D(IS=2.6665E-18  N=.82284  RS=.51617  IKF=11.760E-3  CJO=22.793E-12  M=.3421  VJ=.68922  ISR=39.678E-12  BV=20.108  IBV=.35715  TT=2.6690E-6  Mfg=NXP Type=Zener  Vpk=20)
.MODEL  BZX84-C22  D(IS=2.6665E-18  N=.82284  RS=.51617  IKF=11.760E-3  CJO=21.189E-12  M=.33428  VJ=.65115  ISR=39.038E-12  BV=22.100  IBV=.26549  TT=2.6690E-6  Mfg=NXP Type=Zener  Vpk=22)
.MODEL  BZX84-C24  D(IS=2.6665E-18  N=.82284  RS=.51617  IKF=11.760E-3  CJO=24.790E-12  M=.33892  VJ=.67825  ISR=42.591E-12  BV=24.094  IBV=.21128  TT=882.93E-9  Mfg=NXP Type=Zener  Vpk=24)
.MODEL  BZX84-C27  D(IS=2.6665E-18  N=.82284  RS=.51617  IKF=11.760E-3  CJO=18.788E-12  M=.33528  VJ=.64221  ISR=48.736E-12  BV=27.143  IBV=.52819  TT=2.5247E-6  Mfg=NXP Type=Zener  Vpk=27)
.MODEL  BZX84-C2V7 D(IS=110.88E-18  N=.92657  RS=.85899  IKF=147.68  CJO=344.69E-12  M=.31964  VJ=.72935  ISR=1.5159E-6  BV=2.7639  IBV=69.770E-3  TT=17.889E-9  Mfg=NXP Type=Zener  Vpk=2.7)
.MODEL  BZX84-C30  D(IS=110.88E-18  N=.92657  RS=.85899  IKF=149.75  CJO=17.398E-12  M=.33936  VJ=.65046  ISR=47.874E-12  BV=30.138  IBV=.44378  TT=2.5247E-6  Mfg=NXP Type=Zener  Vpk=30)
.MODEL  BZX84-C33  D(IS=110.88E-18  N=.92657  RS=.85899  IKF=149.75  CJO=16.677E-12  M=.34957  VJ=.66723  ISR=100.00E-12  BV=33.134  IBV=.37878  TT=2.2362E-6  Mfg=NXP Type=Zener  Vpk=33)
.MODEL  BZX84-C36  D(IS=110.88E-18  N=.92657  RS=.85899  IKF=149.75  CJO=18.666E-12  M=.36733  VJ=.74368  ISR=42.919E-12  BV=36.134  IBV=.37878  TT=810.79E-9  Mfg=NXP Type=Zener  Vpk=36)
.MODEL  BZX84-C39  D(IS=2.6665E-18  N=.82284  RS=.51617  IKF=11.760E-3  CJO=15.275E-12  M=.35813  VJ=.71073  ISR=54.711E-12  BV=39.131  IBV=.32753  TT=2.6690E-6  Mfg=NXP Type=Zener  Vpk=39)
.MODEL  BZX84-C3V0 D(IS=2.6665E-18  N=.82284  RS=.51617  IKF=11.760E-3  CJO=336.44E-12  M=.32418  VJ=.73919  ISR=468.92E-9  BV=3.0638  IBV=65.080E-3  TT=10.676E-9  Mfg=NXP Type=Zener  Vpk=3.0)
.MODEL  BZX84-C3V6 D(IS=110.88E-18  N=.92657  RS=.85899  IKF=147.68  CJO=219.21E-12  M=.31686  VJ=.57426  ISR=18.160E-9  BV=3.6606  IBV=61.478E-3  TT=125.51E-9  Mfg=NXP Type=Zener  Vpk=3.6)
.MODEL  BZX84-C3V9 D(IS=2.6665E-18  N=.82284  RS=.51617  IKF=11.760E-3  CJO=285.49E-12  M=.36607  VJ=.84797  ISR=13.080E-9  BV=3.9622  IBV=61.229E-3  TT=37.510E-9  Mfg=NXP Type=Zener  Vpk=3.9)
.MODEL  BZX84-C43  D(IS=2.6665E-18  N=.82284  RS=.51617  IKF=11.760E-3  CJO=14.596E-12  M=.3553  VJ=.6878  ISR=69.202E-12  BV=43.128  IBV=.29071  TT=2.4670E-6  Mfg=NXP Type=Zener  Vpk=43)
.MODEL  BZX84-C47  D(IS=2.6665E-18  N=.82284  RS=.51617  IKF=11.760E-3  CJO=15.100E-12  M=.39802  VJ=.99859  ISR=51.813E-12  BV=47.125  IBV=.26134  TT=810.79E-9  Mfg=NXP Type=Zener  Vpk=47)
.MODEL  BZX84-C4V3 D(IS=7.035E-16  N=0.9809  BV=4.3  IBV=0.005  RS=0.3487  CJO=2.715E-10  VJ=0.7721  M=0.3557  FC=0.5  Mfg=NXP Type=Zener  Vpk=4.3)
.MODEL  BZX84-C51  D(IS=2.6665E-18  N=.82284  RS=.51617  IKF=11.760E-3  CJO=14.030E-12  M=.33875  VJ=.76575  ISR=60.382E-12  BV=51.120  IBV=.21741  TT=2.3083E-6  Mfg=NXP Type=Zener  Vpk=51)
.MODEL  BZX84-C56  D(IS=2.6665E-18  N=.82284  RS=.51617  IKF=11.760E-3  CJO=12.024E-12  M=.34443  VJ=.60675  ISR=53.794E-12  BV=56.116  IBV=.18612  TT=2.3083E-6  Mfg=NXP Type=Zener  Vpk=56)
.MODEL  BZX84-C5V1 D(IS=2.6665E-18  N=.82284  RS=.51617  IKF=11.760E-3  CJO=232.29E-12  M=.35004  VJ=.79587  ISR=150.40E-12  BV=5.1760  IBV=.10454  TT=43.858E-9  Mfg=NXP Type=Zener  Vpk=5.1)
.MODEL  BZX84-C5V6 D(IS=2.6665E-18  N=.82284  RS=.51617  IKF=11.760E-3  CJO=137.10E-12  M=.34532  VJ=.72637  ISR=1.2666E-9  BV=5.7078  IBV=.35715  TT=78.483E-9  Mfg=NXP Type=Zener  Vpk=5.6)
.MODEL  BZX84-C62  D(IS=110.88E-18  N=.92657  RS=.85899  IKF=149.75  CJO=11.525E-12  M=.35851  VJ=.65914  ISR=51.091E-12  BV=62.112  IBV=.16341  TT=2.2362E-6  Mfg=NXP Type=Zener  Vpk=62)
.MODEL  BZX84-C68  D(IS=2.6665E-18  N=.82284  RS=.51617  IKF=11.760E-3  CJO=11.121E-12  M=.34915  VJ=.60561  ISR=53.010E-12  BV=68.110  IBV=.14452  TT=2.6257E-6  Mfg=NXP Type=Zener  Vpk=68)
.MODEL  BZX84-C6V2 D(IS=110.88E-18  N=.92657  RS=.85899  IKF=149.75  CJO=108.46E-12  M=.34501  VJ=.72044  ISR=48.986E-9  BV=6.3329  IBV=1.0062  TT=121.76E-9  Mfg=NXP Type=Zener  Vpk=6.2)
.MODEL  BZX84-C6V8 D(IS=110.88E-18  N=.92657  RS=.85899  IKF=149.75  CJO=93.867E-12  M=.35256  VJ=.75339  ISR=522.33E-12  BV=6.9329  IBV=1.0062  TT=231.41E-9  Mfg=NXP Type=Zener  Vpk=6.8)
.MODEL  BZX84-C75  D(IS=9.794E-15  N=1.101  BV=75  IBV=0.002  RS=0.3363  CJO=1.246E-11  VJ=0.822  M=0.4052  FC=0.5  Mfg=NXP Type=Zener  Vpk=75)
.MODEL  BZX84-C7V5 D(IS=2.6665E-18  N=.82284  RS=.51617  IKF=11.760E-3  CJO=63.513E-12  M=.33559  VJ=.66795  ISR=1.1222E-9  BV=7.6329  IBV=.94329  TT=2.7411E-6  Mfg=NXP Type=Zener  Vpk=7.5)
.MODEL  BZX84-C8V2 D(IS=110.88E-18  N=.92657  RS=.85899  IKF=149.75  CJO=54.185E-12  M=.33443  VJ=.66823  ISR=146.75E-12  BV=8.3329  IBV=1.0062  TT=2.7700E-6  Mfg=NXP Type=Zener  Vpk=8.2)
.MODEL  BZX84-C9V1 D(IS=110.88E-18  N=.92657  RS=.85899  IKF=149.75  CJO=49.094E-12  M=.33781  VJ=.69176  ISR=53.426E-12  BV=9.2329  IBV=1.0062  TT=2.7700E-6  Mfg=NXP Type=Zener  Vpk=9.1)

.MODEL  BZT52C2V0 D(IS=.6n RS=15 N=3 IKF=.72u T_ABS=25)
.MODEL  BAW56 D(IS=1.705E-9 N=1.71 BV=87 IBV=0.0003 RS=1.022 CJO=1.798E-12 VJ=1.032 M=0.2987 FC=0.5 TT=3.606E-9 mfg=NXP)
.MODEL  IDEAL D(Ron=.1 Roff=1Meg CJO=1p TT=1n Vfwd=.5)

.MODEL  1PS70SB10 D(IS=2.117E-07 N=1.016 BV=36 IBV=1.196E-06 RS=2.637 CJO=1.114E-11 VJ=0.2013 M=0.3868 FC=0 TT=0 EG=0.69 XTI=2 Mfg=Nexperia Type=Schottky)
.MODEL  1PS70SB14 D(IS=2.117E-07 N=1.016 BV=36 IBV=1.196E-06 RS=2.637 CJO=1.114E-11 VJ=0.2013 M=0.3868 FC=0 TT=0 EG=0.69 XTI=2 Mfg=Nexperia Type=Schottky) 
.MODEL  1PS70SB15 D(IS=2.117E-07 N=1.016 BV=36 IBV=1.196E-06 RS=2.637 CJO=1.114E-11 VJ=0.2013 M=0.3868 FC=0 TT=0 EG=0.69 XTI=2 Mfg=Nexperia Type=Schottky)
.MODEL  1PS70SB16 D(IS=2.117E-07 N=1.016 BV=36 IBV=1.196E-06 RS=2.637 CJO=1.114E-11 VJ=0.2013 M=0.3868 FC=0 TT=0 EG=0.69 XTI=2 Mfg=Nexperia Type=Schottky)
.MODEL  1PS70SB20 D(IS=4.291E-06 N=1.002 BV=44 IBV=3.0E-05 RS=0.3772 CJO=7.8E-11 VJ=0.4015 M=0.508 FC=0.1 TT=0 EG=0.69 XTI=2 Mfg=Nexperia Type=Schottky)
.MODEL  1PS70SB40 D(IS=1.419E-08 N=1.025 BV=44 IBV=1.255E-07 RS=4.942 CJO=4.046E-12 VJ=0.323 M=0.4154 FC=0.5 TT=0 EG=0.69 XTI=2 Mfg=Nexperia Type=Schottky)
.MODEL  1PS70SB44 D(IS=1.419E-08 N=1.025 BV=44 IBV=1.255E-07 RS=4.942 CJO=4.046E-12 VJ=0.323 M=0.4154 FC=0.5 TT=0 EG=0.69 XTI=2 Mfg=Nexperia Type=Schottky)
.MODEL  1PS70SB45 D(IS=1.419E-08 N=1.025 BV=44 IBV=1.255E-07 RS=4.942 CJO=4.046E-12 VJ=0.323 M=0.4154 FC=0.5 TT=0 EG=0.69 XTI=2 Mfg=Nexperia Type=Schottky) 
.MODEL  1PS70SB46 D(IS=1.419E-08 N=1.025 BV=44 IBV=1.255E-07 RS=4.942 CJO=4.046E-12 VJ=0.323 M=0.4154 FC=0.5 TT=0 EG=0.69 XTI=2)
.MODEL  1PS76SB10 D(IS=2.548E-07 N=1.02 BV=33 IBV=1.251E-06 RS=2.582 CJO=9.92E-12 VJ=0.317 M=0.4411 FC=0.5 TT=0 EG=0.69 XTI=2)
.MODEL  1PS76SB21 D(IS=1.009E-06 N=1.017 BV=44 IBV=0.001611 RS=0.6578 CJO=3.76E-11 VJ=0.274 M=0.4381 FC=0.5 TT=0 EG=0.69 XTI=2)
 




.MODEL  1PS79SB70 D(IS=3.22E-09 N=1.018 BV=77 IBV=1.67E-07 RS=20.89 CJO=1.655E-12 VJ=0.349 M=0.3583 FC=0.5 TT=0 EG=0.69 XTI=2 Mfg=Nexperia Type=Schottky)


.model APT1608SURCK d(IS=2.01E-17 N=2.139 RS=2 m=0.431 Vj=2.32 Cjo=35pF IBV=10u BV=5 EG=2.26 XTI=3 Iave=30mA Vpk=5 mfg=Kingbright type=LED)
.model PT-121-B D(Is=4.352e-7 Rs=.032 N=8.37 Cjo=5n Xti=100 Iave=20A Vpk=5.3 mfg=Luminus type=LED)
.model AOT-2015 D(Is=5.961e-10 Rs=1.07 N=6.222 Cjo=.5n Xti=200 Iave=175mA Vpk=5 mfg=AOT type=LED)
.model LXHL-BW02 D(Is=4.5e-20 Rs=.85 N=2.6 Cjo=1.18n Xti=200 Iave=400mA Vpk=5 mfg=Lumileds type=LED)
.model LXK2-PW14 D(Is=3.5e-17 Rs=.725 N=3.12 Cjo=1.2n Xti=200 Iave=1.6 Vpk=5 mfg=Lumileds type=LED)
.model Luxeon1 D(Is=2.27n Rs=0.25 N=6.79 Cjo=42p Iave=350m mfg=Lumileds type=LED)
.model NSPW500BS D(Is=.27n Rs=5.65 N=6.79 Cjo=42p Xti=200 Iave=30m Vpk=5 mfg=Nichia type=LED)
.model NSCW100 D(Is=16.88n Rs=8.163 N=9.626 Cjo=42p Xti=200 Iave=30m Vpk=5 mfg=Nichia type=LED)
.model QTLP690C D(Is=1e-22 Rs=6 N=1.5 Cjo=50p Xti=100 Iave=160m Vpk=5 mfg=Fairchild type=LED)
.MODEL TLSV5100GREEN D(IS=1.7e-20 N=1.8 RS=8 Ikf=2m Eg=2.4 Cjo=50p Bv=6 Ibv=10u mfg=Vishay type=LED)
.MODEL TLSV5100RED D(IS=2.1e-19 N=1.8 RS=10 Ikf=1.1m Eg=2.3 Cjo=50p Bv=6 Ibv=10u mfg=Vishay type=LED)
.model NSSW008CT-P1 D(Is=.23f Rs=17.6 N=3.43 Cjo=42p Xti=120 Iave=35m Vpk=5 mfg=Nichia type=LED)
.model NSSWS108T D(Is=1.13e-18 Rs=14.9 N=3.02 Cjo=42p Xti=150 Iave=35m Vpk=5 mfg=Nichia type=LED)
.MODEL LedRed D (IS=93.2P RS=42M N=3.73 BV=4 IBV=10U CJO=2.97P VJ=.75 M=.333 TT=4.32U Iave=40m Vpk=4 type=LED)
.MODEL LedGreen D (IS=93.2P RS=42M N=4.61 BV=4 IBV=10U CJO=2.97P VJ=.75 M=.333 TT=4.32U Iave=40m Vpk=4 type=LED)
.MODEL LedBLUE D (IS=93.2P RS=42M N=7.47 BV=5 IBV=10U CJO=2.97P VJ=.75 M=.333 TT=4.32U Iave=40m Vpk=5 type=LED)
.model LedWHITE D(Is=0.27n Rs=5.65 N=6.79 Cjo=42p Iave=30m Vpk=5 type=LED)
.MODEL XlampMX6 D IS=4.3302E-9 N=6.4231 RS=1.0062 XTI=55 EG=2.5 Iave=1 mfg=CREE type=LED
.MODEL XlampMX3 D IS=2n N=6.4231 RS=2 XTI=55 EG=2.5 Iave=350m mfg=CREE type=LED
.model W724C0 D(Is=1.396n N=5.727 Rs=43.6m Ikf=.3128 Xti=3 Eg=3.4 Ipk=2.8 Diss=11.8 mfg=Seoul_Semi type=LED)
.model UPWLEDxx D(Is=1E-30 N=1.923 Rs=32.09 Eg=3.6 Cjo=63.87p M=.1513 Vj=2.02 Fc=.5 Isr=1.304m Nr=3.4Meg Bv=12 Ibv=369.5u Tt=432.8n Xti=5 Iave=30m Vpk=8 mfg=Microsemi type=LED)
.model W5AP-LZMZ-5K8L D(Is=3.5e-17 Rs=.25 N=3.12 Cjo=2.75n Xti=150 Iave=2 Vpk=5 mfg=Lumileds type=LED)
.model OCI-440_880 d is=1.19e-21 n=1.0812 rs=624m Cjo=100p Iave=350mA mfg=OSAOptoLight type=LED
.model SFH4235 d is=2.37e-21 n=2.28 rs=125m Cjo=200p Iave=1 bv=1 Vpk=1 mfg=OSRAM type=LED
.model LuxStarW1w D(Is=2.52144e-017 Rs=0.769946 N=3.33836 Cjo=100p Iave=350m Ipk=500m mfg=Luxeon type=LED)
.model LuxStarW5w D(Is=3.2946e-017 Rs=0.774809 N=6.5979 Cjo=200p Iave=700m Ipk=1000m mfg=Luxeon type=LED)
.model VSMY7852X01 d is=82.34p n=2.917 rs=703m Cjo=100p bv=5 ibv=10u Vpk=5 Iave=250m mfg=Vishay type=LED
.model HIR5393C/L223 d is=36.4e-21 n=1.262 rs=778m Cjo=100p bv=5 ibv=10u Vpk=5 Iave=350m mfg=Everlight type=LED
.model LXMA-PW01-VFBin_C D(Is=3.0749e-15 Rs=0.2797 N=3.4778 Iave=350m mfg=Lumileds type=LED)
.model LXMA-PW01-VFBin_D D(Is=3.4288e-11 Rs=0.3057 N=5.2188 Iave=350m mfg=Lumileds type=LED)
.model LXMA-PW01-VFBin_E D(Is=1.1155n Rs=0.3410 N=6.4431 Iave=350m mfg=Lumileds type=LED)
.model LXMA-PW01-VFBin_F D(Is=5.7680e-08 Rs=0.4115 N=8.5775 Iave=350m mfg=Lumileds type=LED)
.model LXMA-PW01-VFBin_G D(Is=1.7159e-06 Rs=0.5122 N=11.4792 Iave=350m mfg=Lumileds type=LED)
.model LXML-PWC1-VFBin_C D(Is=9.9054E-16 Rs=0.3672 N=3.2997 Iave=350m mfg=Lumileds type=LED)
.model LXML-PWC1-VFBin_D D(Is=1.5264E-11 Rs=0.4785 N=4.8316 Iave=350m mfg=Lumileds type=LED)
.model LXML-PWC1-VFBin_E D(Is=1.2192E-08 Rs=0.6093 N=7.0727 Iave=350m mfg=Lumileds type=LED)
.model LXML-PWC1-VFBin_F D(Is=7.7010E-07 Rs=0.7860 N=10.1428 Iave=350m mfg=Lumileds type=LED)
.model LXML-PWC1-VFBin_G D(Is=1.6973E-06 Rs=0.7700 N=11.2454 Iave=350m mfg=Lumileds type=LED)
.model LXML-PWN1-VFBin_C D(Is=9.9054E-16 Rs=0.3672 N=3.2997 Iave=350m mfg=Lumileds type=LED)
.model LXML-PWN1-VFBin_D D(Is=1.5264E-11 Rs=0.4785 N=4.8316 Iave=350m mfg=Lumileds type=LED)
.model LXML-PWN1-VFBin_E D(Is=1.2192E-08 Rs=0.6093 N=7.0727 Iave=350m mfg=Lumileds type=LED)
.model LXML-PWN1-VFBin_F D(Is=7.7010E-07 Rs=0.7860 N=10.1428 Iave=350m mfg=Lumileds type=LED)
.model LXML-PWN1-VFBin_G D(Is=1.6973E-06 Rs=0.7700 N=11.2454 Iave=350m mfg=Lumileds type=LED)
.model LXML-PW11-VFBin_C D(Is=9.9054E-16 Rs=0.3672 N=3.2997 Iave=350m mfg=Lumileds type=LED)
.model LXML-PW11-VFBin_D D(Is=1.5264E-11 Rs=0.4785 N=4.8316 Iave=350m mfg=Lumileds type=LED)
.model LXML-PW11-VFBin_E D(Is=1.2192E-08 Rs=0.6093 N=7.0727 Iave=350m mfg=Lumileds type=LED)
.model LXML-PW11-VFBin_F D(Is=7.7010E-07 Rs=0.7860 N=10.1428 Iave=350m mfg=Lumileds type=LED)
.model LXML-PW11-VFBin_G D(Is=1.6973E-06 Rs=0.7700 N=11.2454 Iave=350m mfg=Lumileds type=LED)
.model LXML-PW21-VFBin_C D(Is=9.9054E-16 Rs=0.3672 N=3.2997 Iave=350m mfg=Lumileds type=LED)
.model LXML-PW21-VFBin_D D(Is=1.5264E-11 Rs=0.4785 N=4.8316 Iave=350m mfg=Lumileds type=LED)
.model LXML-PW21-VFBin_E D(Is=1.2192E-08 Rs=0.6093 N=7.0727 Iave=350m mfg=Lumileds type=LED)
.model LXML-PW21-VFBin_F D(Is=7.7010E-07 Rs=0.7860 N=10.1428 Iave=350m mfg=Lumileds type=LED)
.model LXML-PW21-VFBin_G D(Is=1.6973E-06 Rs=0.7700 N=11.2454 Iave=350m mfg=Lumileds type=LED)
.model LXML-PW31-VFBin_C D(Is=9.9054E-16 Rs=0.3672 N=3.2997 Iave=350m mfg=Lumileds type=LED)
.model LXML-PW31-VFBin_D D(Is=1.5264E-11 Rs=0.4785 N=4.8316 Iave=350m mfg=Lumileds type=LED)
.model LXML-PW31-VFBin_E D(Is=1.2192E-08 Rs=0.6093 N=7.0727 Iave=350m mfg=Lumileds type=LED)
.model LXML-PW31-VFBin_F D(Is=7.7010E-07 Rs=0.7860 N=10.1428 Iave=350m mfg=Lumileds type=LED)
.model LXML-PW31-VFBin_G D(Is=1.6973E-06 Rs=0.7700 N=11.2454 Iave=350m mfg=Lumileds type=LED)
.model LXML-PW51-VFBin_C D(Is=9.9054E-16 Rs=0.3672 N=3.2997 Iave=350m mfg=Lumileds type=LED)
.model LXML-PW51-VFBin_D D(Is=1.5264E-11 Rs=0.4785 N=4.8316 Iave=350m mfg=Lumileds type=LED)
.model LXML-PW51-VFBin_E D(Is=1.2192E-08 Rs=0.6093 N=7.0727 Iave=350m mfg=Lumileds type=LED)
.model LXML-PW51-VFBin_F D(Is=7.7010E-07 Rs=0.7860 N=10.1428 Iave=350m mfg=Lumileds type=LED)
.model LXML-PW51-VFBin_G D(Is=1.6973E-06 Rs=0.7700 N=11.2454 Iave=350m mfg=Lumileds type=LED)
.model LXML-PW71-VFBin_C D(Is=9.9054E-16 Rs=0.3672 N=3.2997 Iave=350m mfg=Lumileds type=LED)
.model LXML-PW71-VFBin_D D(Is=1.5264E-11 Rs=0.4785 N=4.8316 Iave=350m mfg=Lumileds type=LED)
.model LXML-PW71-VFBin_E D(Is=1.2192E-08 Rs=0.6093 N=7.0727 Iave=350m mfg=Lumileds type=LED)
.model LXML-PW71-VFBin_F D(Is=7.7010E-07 Rs=0.7860 N=10.1428 Iave=350m mfg=Lumileds type=LED)
.model LXML-PW71-VFBin_G D(Is=1.6973E-06 Rs=0.7700 N=11.2454 Iave=350m mfg=Lumileds type=LED)
.model LXM3-PW51-VFBin_C D(Is=9.9054E-16 Rs=0.3672 N=3.2997 Iave=350m mfg=Lumileds type=LED)
.model LXM3-PW51-VFBin_D D(Is=1.5264E-11 Rs=0.4785 N=4.8316 Iave=350m mfg=Lumileds type=LED)
.model LXM3-PW51-VFBin_E D(Is=1.2192E-08 Rs=0.6093 N=7.0727 Iave=350m mfg=Lumileds type=LED)
.model LXM3-PW51-VFBin_F D(Is=7.7010E-07 Rs=0.7860 N=10.1428 Iave=350m mfg=Lumileds type=LED)
.model LXM3-PW51-VFBin_G D(Is=1.6973E-06 Rs=0.7700 N=11.2454 Iave=350m mfg=Lumileds type=LED)
.model LXM3-PW61-VFBin_C D(Is=9.9054E-16 Rs=0.3672 N=3.2997 Iave=350m mfg=Lumileds type=LED)
.model LXM3-PW61-VFBin_D D(Is=1.5264E-11 Rs=0.4785 N=4.8316 Iave=350m mfg=Lumileds type=LED)
.model LXM3-PW61-VFBin_E D(Is=1.2192E-08 Rs=0.6093 N=7.0727 Iave=350m mfg=Lumileds type=LED)
.model LXM3-PW61-VFBin_F D(Is=7.7010E-07 Rs=0.7860 N=10.1428 Iave=350m mfg=Lumileds type=LED)
.model LXM3-PW61-VFBin_G D(Is=1.6973E-06 Rs=0.7700 N=11.2454 Iave=350m mfg=Lumileds type=LED)
.model LXM3-PW71-VFBin_C D(Is=9.9054E-16 Rs=0.3672 N=3.2997 Iave=350m mfg=Lumileds type=LED)
.model LXM3-PW71-VFBin_D D(Is=1.5264E-11 Rs=0.4785 N=4.8316 Iave=350m mfg=Lumileds type=LED)
.model LXM3-PW71-VFBin_E D(Is=1.2192E-08 Rs=0.6093 N=7.0727 Iave=350m mfg=Lumileds type=LED)
.model LXM3-PW71-VFBin_F D(Is=7.7010E-07 Rs=0.7860 N=10.1428 Iave=350m mfg=Lumileds type=LED)
.model LXM3-PW71-VFBin_G D(Is=1.6973E-06 Rs=0.7700 N=11.2454 Iave=350m mfg=Lumileds type=LED)
.model LXM3-PW81-VFBin_C D(Is=9.9054E-16 Rs=0.3672 N=3.2997 Iave=350m mfg=Lumileds type=LED)
.model LXM3-PW81-VFBin_D D(Is=1.5264E-11 Rs=0.4785 N=4.8316 Iave=350m mfg=Lumileds type=LED)
.model LXM3-PW81-VFBin_E D(Is=1.2192E-08 Rs=0.6093 N=7.0727 Iave=350m mfg=Lumileds type=LED)
.model LXM3-PW81-VFBin_F D(Is=7.7010E-07 Rs=0.7860 N=10.1428 Iave=350m mfg=Lumileds type=LED)
.model LXM3-PW81-VFBin_G D(Is=1.6973E-06 Rs=0.7700 N=11.2454 Iave=350m mfg=Lumileds type=LED)
.model LXML-PWW1-VFBin_C D(Is=9.9054E-16 Rs=0.3672 N=3.2997 Iave=350m mfg=Lumileds type=LED)
.model LXML-PWW1-VFBin_D D(Is=1.5264E-11 Rs=0.4785 N=4.8316 Iave=350m mfg=Lumileds type=LED)
.model LXML-PWW1-VFBin_E D(Is=1.2192E-08 Rs=0.6093 N=7.0727 Iave=350m mfg=Lumileds type=LED)
.model LXML-PWW1-VFBin_F D(Is=7.7010E-07 Rs=0.7860 N=10.1428 Iave=350m mfg=Lumileds type=LED)
.model LXML-PWW1-VFBin_G D(Is=1.6973E-06 Rs=0.7700 N=11.2454 Iave=350m mfg=Lumileds type=LED)
.model LXM8-PW27-VFBin_R D(Is=2.5153E-16 Rs=0.3584 N=3.1556 Iave=350m mfg=Lumileds type=LED)
.model LXM8-PW27-VFBin_S D(Is=3.6124E-12 Rs=0.4539 N=4.5259 Iave=350m mfg=Lumileds type=LED)
.model LXM8-PW27-VFBin_T D(Is=8.7087n Rs=0.5964 N=6.9100 Iave=350m mfg=Lumileds type=LED)
.model LXM8-PW30-VFBin_R D(Is=2.5153E-16 Rs=0.3584 N=3.1556 Iave=350m mfg=Lumileds type=LED)
.model LXM8-PW30-VFBin_S D(Is=3.6124E-12 Rs=0.4539 N=4.5259 Iave=350m mfg=Lumileds type=LED)
.model LXM8-PW30-VFBin_T D(Is=8.7087n Rs=0.5964 N=6.9100 Iave=350m mfg=Lumileds type=LED)
.model LXML-PWC2-VFBin_R D(Is=5.6664E-17 Rs=0.1919 N=2.9519 Iave=700m mfg=Lumileds type=LED)
.model LXML-PWC2-VFBin_S D(Is=3.6528E-13 Rs=0.2110 N=4.0323 Iave=700m mfg=Lumileds type=LED)
.model LXML-PWC2-VFBin_T D(Is=1.6213E-10 Rs=0.2426 N=5.4770 Iave=700m mfg=Lumileds type=LED)
.model LXML-PWN2-VFBin_R D(Is=5.6664E-17 Rs=0.1919 N=2.9519 Iave=700m mfg=Lumileds type=LED)
.model LXML-PWN2-VFBin_S D(Is=3.6528E-13 Rs=0.2110 N=4.0323 Iave=700m mfg=Lumileds type=LED)
.model LXML-PWN2-VFBin_T D(Is=1.6213E-10 Rs=0.2426 N=5.4770 Iave=700m mfg=Lumileds type=LED)
.model LXML-PR01-VFBin_C D(Is=9.9054E-16 Rs=0.3672 N=3.2997 Iave=350m mfg=Lumileds type=LED)